[root]
type=Root
children=system
eventq_index=0
full_system=false
sim_quantum=0
time_sync_enable=false
time_sync_period=100000000000
time_sync_spin_threshold=100000000

[system]
type=System
children=clk_domain cpu cpu_clk_domain cpu_voltage_domain dvfs_handler mem_ctrls membus redirect_paths0 redirect_paths1 redirect_paths2 voltage_domain
byte_order=little
cache_line_size=64
eventq_index=0
exit_on_work_items=false
init_param=0
kvm_vm=Null
m5ops_base=4294901760
mem_mode=timing
mem_ranges=0:536870912
memories=system.mem_ctrls.dram
mmap_using_noreserve=false
multi_thread=false
num_work_ids=16
readfile=
redirect_paths=system.redirect_paths0 system.redirect_paths1 system.redirect_paths2
shared_backstore=
symbolfile=
thermal_components=
thermal_model=Null
work_begin_ckpt_count=0
work_begin_cpu_id_exit=-1
work_begin_exit_count=0
work_cpus_ckpt_count=0
work_end_ckpt_count=0
work_end_exit_count=0
work_item_id=-1
workload=Null
system_port=system.membus.cpu_side_ports[0]

[system.clk_domain]
type=SrcClockDomain
clock=1000
domain_id=-1
eventq_index=0
init_perf_level=0
voltage_domain=system.voltage_domain

[system.cpu]
type=DerivO3CPU
children=branchPred dcache dtb dtb_walker_cache fuPool icache interrupts isa itb itb_walker_cache power_state tracer workload
LFSTSize=1024
LQEntries=72
LSQCheckLoads=true
LSQDepCheckShift=0
SQEntries=56
SSITSize=1024
activity=0
backComSize=5
branchPred=system.cpu.branchPred
cacheLoadPorts=200
cacheStorePorts=200
checker=Null
clk_domain=system.cpu_clk_domain
commitToDecodeDelay=1
commitToFetchDelay=1
commitToIEWDelay=1
commitToRenameDelay=1
commitWidth=8
cpu_id=0
decodeToFetchDelay=1
decodeToRenameDelay=2
decodeWidth=5
dispatchWidth=8
do_checkpoint_insts=true
do_statistics_insts=true
dtb=system.cpu.dtb
eventq_index=0
fetchBufferSize=16
fetchQueueSize=32
fetchToDecodeDelay=3
fetchTrapLatency=1
fetchWidth=8
forwardComSize=5
fuPool=system.cpu.fuPool
function_trace=false
function_trace_start=0
iewToCommitDelay=1
iewToDecodeDelay=1
iewToFetchDelay=1
iewToRenameDelay=1
interrupts=system.cpu.interrupts
isa=system.cpu.isa
issueToExecuteDelay=1
issueWidth=8
itb=system.cpu.itb
max_insts_all_threads=0
max_insts_any_thread=0
needsTSO=true
numIQEntries=97
numPhysCCRegs=1090
numPhysFloatRegs=220
numPhysIntRegs=218
numPhysVecPredRegs=32
numPhysVecRegs=168
numROBEntries=224
numRobs=1
numThreads=1
power_gating_on_idle=false
power_model=
power_state=system.cpu.power_state
progress_interval=0
pwr_gating_latency=300
renameToDecodeDelay=1
renameToFetchDelay=1
renameToIEWDelay=1
renameToROBDelay=1
renameWidth=8
simpoint_start_insts=
smtCommitPolicy=RoundRobin
smtFetchPolicy=SingleThread
smtIQPolicy=Partitioned
smtIQThreshold=100
smtLSQPolicy=Partitioned
smtLSQThreshold=100
smtNumFetchingThreads=1
smtROBPolicy=Partitioned
smtROBThreshold=100
socket_id=0
squashWidth=8
store_set_clear_period=250000
switched_out=false
syscallRetryLatency=10000
system=system
tracer=system.cpu.tracer
trapLatency=13
wait_for_remote_gdb=false
wbWidth=8
workload=system.cpu.workload
dcache_port=system.cpu.dcache.cpu_side
icache_port=system.cpu.icache.cpu_side

[system.cpu.branchPred]
type=BiModeBP
children=indirectBranchPred
BTBEntries=512
BTBTagSize=18
RASSize=16
choiceCtrBits=2
choicePredictorSize=8192
eventq_index=0
globalCtrBits=2
globalPredictorSize=8192
indirectBranchPred=system.cpu.branchPred.indirectBranchPred
instShiftAmt=2
numThreads=1

[system.cpu.branchPred.indirectBranchPred]
type=SimpleIndirectPredictor
eventq_index=0
indirectGHRBits=13
indirectHashGHR=true
indirectHashTargets=true
indirectPathLength=3
indirectSets=256
indirectTagSize=16
indirectWays=2
instShiftAmt=2
numThreads=1

[system.cpu.dcache]
type=Cache
children=power_state replacement_policy tags
addr_ranges=0:18446744073709551615
assoc=2
clk_domain=system.cpu_clk_domain
clusivity=mostly_incl
compressor=Null
data_latency=2
demand_mshr_reserve=1
eventq_index=0
is_read_only=false
max_miss_count=0
mshrs=16
power_model=
power_state=system.cpu.dcache.power_state
prefetch_on_access=false
prefetcher=Null
replacement_policy=system.cpu.dcache.replacement_policy
response_latency=2
sequential_access=false
size=65536
system=system
tag_latency=2
tags=system.cpu.dcache.tags
tgts_per_mshr=8
warmup_percentage=0
write_allocator=Null
write_buffers=64
writeback_clean=true
cpu_side=system.cpu.dcache_port
mem_side=system.membus.cpu_side_ports[2]

[system.cpu.dcache.power_state]
type=PowerState
clk_gate_bins=20
clk_gate_max=1000000000000
clk_gate_min=1000
default_state=UNDEFINED
eventq_index=0
leaders=
possible_states=

[system.cpu.dcache.replacement_policy]
type=LRURP
eventq_index=0

[system.cpu.dcache.tags]
type=BaseSetAssoc
children=indexing_policy power_state
assoc=2
block_size=64
clk_domain=system.cpu_clk_domain
entry_size=64
eventq_index=0
indexing_policy=system.cpu.dcache.tags.indexing_policy
power_model=
power_state=system.cpu.dcache.tags.power_state
replacement_policy=system.cpu.dcache.replacement_policy
sequential_access=false
size=65536
system=system
tag_latency=2
warmup_percentage=0

[system.cpu.dcache.tags.indexing_policy]
type=SetAssociative
assoc=2
entry_size=64
eventq_index=0
size=65536

[system.cpu.dcache.tags.power_state]
type=PowerState
clk_gate_bins=20
clk_gate_max=1000000000000
clk_gate_min=1000
default_state=UNDEFINED
eventq_index=0
leaders=
possible_states=

[system.cpu.dtb]
type=X86TLB
children=walker
eventq_index=0
size=64
system=system
walker=system.cpu.dtb.walker

[system.cpu.dtb.walker]
type=X86PagetableWalker
children=power_state
clk_domain=system.cpu_clk_domain
eventq_index=0
num_squash_per_cycle=4
power_model=
power_state=system.cpu.dtb.walker.power_state
system=system
port=system.cpu.dtb_walker_cache.cpu_side

[system.cpu.dtb.walker.power_state]
type=PowerState
clk_gate_bins=20
clk_gate_max=1000000000000
clk_gate_min=1000
default_state=UNDEFINED
eventq_index=0
leaders=
possible_states=

[system.cpu.dtb_walker_cache]
type=Cache
children=power_state replacement_policy tags
addr_ranges=0:18446744073709551615
assoc=4
clk_domain=system.cpu_clk_domain
clusivity=mostly_incl
compressor=Null
data_latency=2
demand_mshr_reserve=1
eventq_index=0
is_read_only=true
max_miss_count=0
mshrs=16
power_model=
power_state=system.cpu.dtb_walker_cache.power_state
prefetch_on_access=false
prefetcher=Null
replacement_policy=system.cpu.dtb_walker_cache.replacement_policy
response_latency=1
sequential_access=false
size=1024
system=system
tag_latency=2
tags=system.cpu.dtb_walker_cache.tags
tgts_per_mshr=8
warmup_percentage=0
write_allocator=Null
write_buffers=64
writeback_clean=true
cpu_side=system.cpu.dtb.walker.port
mem_side=system.membus.cpu_side_ports[4]

[system.cpu.dtb_walker_cache.power_state]
type=PowerState
clk_gate_bins=20
clk_gate_max=1000000000000
clk_gate_min=1000
default_state=UNDEFINED
eventq_index=0
leaders=
possible_states=

[system.cpu.dtb_walker_cache.replacement_policy]
type=LRURP
eventq_index=0

[system.cpu.dtb_walker_cache.tags]
type=BaseSetAssoc
children=indexing_policy power_state
assoc=4
block_size=64
clk_domain=system.cpu_clk_domain
entry_size=64
eventq_index=0
indexing_policy=system.cpu.dtb_walker_cache.tags.indexing_policy
power_model=
power_state=system.cpu.dtb_walker_cache.tags.power_state
replacement_policy=system.cpu.dtb_walker_cache.replacement_policy
sequential_access=false
size=1024
system=system
tag_latency=2
warmup_percentage=0

[system.cpu.dtb_walker_cache.tags.indexing_policy]
type=SetAssociative
assoc=4
entry_size=64
eventq_index=0
size=1024

[system.cpu.dtb_walker_cache.tags.power_state]
type=PowerState
clk_gate_bins=20
clk_gate_max=1000000000000
clk_gate_min=1000
default_state=UNDEFINED
eventq_index=0
leaders=
possible_states=

[system.cpu.fuPool]
type=FUPool
children=FUList0 FUList1 FUList2 FUList3 FUList4 FUList5 FUList6 FUList7
FUList=system.cpu.fuPool.FUList0 system.cpu.fuPool.FUList1 system.cpu.fuPool.FUList2 system.cpu.fuPool.FUList3 system.cpu.fuPool.FUList4 system.cpu.fuPool.FUList5 system.cpu.fuPool.FUList6 system.cpu.fuPool.FUList7
eventq_index=0

[system.cpu.fuPool.FUList0]
type=FUDesc
children=opList00 opList01 opList02 opList03 opList04 opList05 opList06 opList07 opList08 opList09 opList10 opList11 opList12 opList13 opList14 opList15 opList16 opList17 opList18 opList19 opList20 opList21 opList22 opList23 opList24 opList25 opList26 opList27 opList28 opList29
count=1
eventq_index=0
opList=system.cpu.fuPool.FUList0.opList00 system.cpu.fuPool.FUList0.opList01 system.cpu.fuPool.FUList0.opList02 system.cpu.fuPool.FUList0.opList03 system.cpu.fuPool.FUList0.opList04 system.cpu.fuPool.FUList0.opList05 system.cpu.fuPool.FUList0.opList06 system.cpu.fuPool.FUList0.opList07 system.cpu.fuPool.FUList0.opList08 system.cpu.fuPool.FUList0.opList09 system.cpu.fuPool.FUList0.opList10 system.cpu.fuPool.FUList0.opList11 system.cpu.fuPool.FUList0.opList12 system.cpu.fuPool.FUList0.opList13 system.cpu.fuPool.FUList0.opList14 system.cpu.fuPool.FUList0.opList15 system.cpu.fuPool.FUList0.opList16 system.cpu.fuPool.FUList0.opList17 system.cpu.fuPool.FUList0.opList18 system.cpu.fuPool.FUList0.opList19 system.cpu.fuPool.FUList0.opList20 system.cpu.fuPool.FUList0.opList21 system.cpu.fuPool.FUList0.opList22 system.cpu.fuPool.FUList0.opList23 system.cpu.fuPool.FUList0.opList24 system.cpu.fuPool.FUList0.opList25 system.cpu.fuPool.FUList0.opList26 system.cpu.fuPool.FUList0.opList27 system.cpu.fuPool.FUList0.opList28 system.cpu.fuPool.FUList0.opList29

[system.cpu.fuPool.FUList0.opList00]
type=OpDesc
eventq_index=0
opClass=IntAlu
opLat=1
pipelined=true

[system.cpu.fuPool.FUList0.opList01]
type=OpDesc
eventq_index=0
opClass=IntDiv
opLat=12
pipelined=false

[system.cpu.fuPool.FUList0.opList02]
type=OpDesc
eventq_index=0
opClass=SimdAdd
opLat=1
pipelined=true

[system.cpu.fuPool.FUList0.opList03]
type=OpDesc
eventq_index=0
opClass=SimdAddAcc
opLat=1
pipelined=true

[system.cpu.fuPool.FUList0.opList04]
type=OpDesc
eventq_index=0
opClass=SimdAlu
opLat=1
pipelined=true

[system.cpu.fuPool.FUList0.opList05]
type=OpDesc
eventq_index=0
opClass=SimdCmp
opLat=1
pipelined=true

[system.cpu.fuPool.FUList0.opList06]
type=OpDesc
eventq_index=0
opClass=SimdCvt
opLat=6
pipelined=true

[system.cpu.fuPool.FUList0.opList07]
type=OpDesc
eventq_index=0
opClass=SimdMisc
opLat=3
pipelined=true

[system.cpu.fuPool.FUList0.opList08]
type=OpDesc
eventq_index=0
opClass=SimdMult
opLat=5
pipelined=true

[system.cpu.fuPool.FUList0.opList09]
type=OpDesc
eventq_index=0
opClass=SimdMultAcc
opLat=5
pipelined=true

[system.cpu.fuPool.FUList0.opList10]
type=OpDesc
eventq_index=0
opClass=SimdShift
opLat=3
pipelined=true

[system.cpu.fuPool.FUList0.opList11]
type=OpDesc
eventq_index=0
opClass=SimdShiftAcc
opLat=3
pipelined=true

[system.cpu.fuPool.FUList0.opList12]
type=OpDesc
eventq_index=0
opClass=SimdSqrt
opLat=12
pipelined=false

[system.cpu.fuPool.FUList0.opList13]
type=OpDesc
eventq_index=0
opClass=SimdFloatAdd
opLat=5
pipelined=true

[system.cpu.fuPool.FUList0.opList14]
type=OpDesc
eventq_index=0
opClass=SimdFloatAlu
opLat=5
pipelined=true

[system.cpu.fuPool.FUList0.opList15]
type=OpDesc
eventq_index=0
opClass=SimdFloatCmp
opLat=3
pipelined=true

[system.cpu.fuPool.FUList0.opList16]
type=OpDesc
eventq_index=0
opClass=SimdFloatCvt
opLat=3
pipelined=true

[system.cpu.fuPool.FUList0.opList17]
type=OpDesc
eventq_index=0
opClass=SimdFloatDiv
opLat=3
pipelined=true

[system.cpu.fuPool.FUList0.opList18]
type=OpDesc
eventq_index=0
opClass=SimdFloatMisc
opLat=3
pipelined=true

[system.cpu.fuPool.FUList0.opList19]
type=OpDesc
eventq_index=0
opClass=SimdFloatMult
opLat=3
pipelined=true

[system.cpu.fuPool.FUList0.opList20]
type=OpDesc
eventq_index=0
opClass=SimdFloatMultAcc
opLat=5
pipelined=true

[system.cpu.fuPool.FUList0.opList21]
type=OpDesc
eventq_index=0
opClass=SimdFloatSqrt
opLat=9
pipelined=true

[system.cpu.fuPool.FUList0.opList22]
type=OpDesc
eventq_index=0
opClass=FloatAdd
opLat=3
pipelined=true

[system.cpu.fuPool.FUList0.opList23]
type=OpDesc
eventq_index=0
opClass=FloatCmp
opLat=3
pipelined=true

[system.cpu.fuPool.FUList0.opList24]
type=OpDesc
eventq_index=0
opClass=FloatCvt
opLat=3
pipelined=true

[system.cpu.fuPool.FUList0.opList25]
type=OpDesc
eventq_index=0
opClass=FloatDiv
opLat=9
pipelined=false

[system.cpu.fuPool.FUList0.opList26]
type=OpDesc
eventq_index=0
opClass=FloatSqrt
opLat=33
pipelined=true

[system.cpu.fuPool.FUList0.opList27]
type=OpDesc
eventq_index=0
opClass=FloatMult
opLat=4
pipelined=true

[system.cpu.fuPool.FUList0.opList28]
type=OpDesc
eventq_index=0
opClass=FloatMultAcc
opLat=5
pipelined=true

[system.cpu.fuPool.FUList0.opList29]
type=OpDesc
eventq_index=0
opClass=FloatMisc
opLat=3
pipelined=true

[system.cpu.fuPool.FUList1]
type=FUDesc
children=opList00 opList01 opList02 opList03 opList04 opList05 opList06 opList07 opList08 opList09 opList10 opList11 opList12 opList13 opList14 opList15 opList16 opList17 opList18 opList19 opList20 opList21 opList22 opList23 opList24
count=1
eventq_index=0
opList=system.cpu.fuPool.FUList1.opList00 system.cpu.fuPool.FUList1.opList01 system.cpu.fuPool.FUList1.opList02 system.cpu.fuPool.FUList1.opList03 system.cpu.fuPool.FUList1.opList04 system.cpu.fuPool.FUList1.opList05 system.cpu.fuPool.FUList1.opList06 system.cpu.fuPool.FUList1.opList07 system.cpu.fuPool.FUList1.opList08 system.cpu.fuPool.FUList1.opList09 system.cpu.fuPool.FUList1.opList10 system.cpu.fuPool.FUList1.opList11 system.cpu.fuPool.FUList1.opList12 system.cpu.fuPool.FUList1.opList13 system.cpu.fuPool.FUList1.opList14 system.cpu.fuPool.FUList1.opList15 system.cpu.fuPool.FUList1.opList16 system.cpu.fuPool.FUList1.opList17 system.cpu.fuPool.FUList1.opList18 system.cpu.fuPool.FUList1.opList19 system.cpu.fuPool.FUList1.opList20 system.cpu.fuPool.FUList1.opList21 system.cpu.fuPool.FUList1.opList22 system.cpu.fuPool.FUList1.opList23 system.cpu.fuPool.FUList1.opList24

[system.cpu.fuPool.FUList1.opList00]
type=OpDesc
eventq_index=0
opClass=IntAlu
opLat=1
pipelined=true

[system.cpu.fuPool.FUList1.opList01]
type=OpDesc
eventq_index=0
opClass=IntMult
opLat=3
pipelined=false

[system.cpu.fuPool.FUList1.opList02]
type=OpDesc
eventq_index=0
opClass=SimdAdd
opLat=1
pipelined=true

[system.cpu.fuPool.FUList1.opList03]
type=OpDesc
eventq_index=0
opClass=SimdAddAcc
opLat=1
pipelined=true

[system.cpu.fuPool.FUList1.opList04]
type=OpDesc
eventq_index=0
opClass=SimdAlu
opLat=1
pipelined=true

[system.cpu.fuPool.FUList1.opList05]
type=OpDesc
eventq_index=0
opClass=SimdCmp
opLat=1
pipelined=true

[system.cpu.fuPool.FUList1.opList06]
type=OpDesc
eventq_index=0
opClass=SimdCvt
opLat=6
pipelined=true

[system.cpu.fuPool.FUList1.opList07]
type=OpDesc
eventq_index=0
opClass=SimdMisc
opLat=3
pipelined=true

[system.cpu.fuPool.FUList1.opList08]
type=OpDesc
eventq_index=0
opClass=SimdMult
opLat=5
pipelined=true

[system.cpu.fuPool.FUList1.opList09]
type=OpDesc
eventq_index=0
opClass=SimdMultAcc
opLat=5
pipelined=true

[system.cpu.fuPool.FUList1.opList10]
type=OpDesc
eventq_index=0
opClass=SimdShift
opLat=3
pipelined=true

[system.cpu.fuPool.FUList1.opList11]
type=OpDesc
eventq_index=0
opClass=SimdShiftAcc
opLat=3
pipelined=true

[system.cpu.fuPool.FUList1.opList12]
type=OpDesc
eventq_index=0
opClass=SimdSqrt
opLat=12
pipelined=false

[system.cpu.fuPool.FUList1.opList13]
type=OpDesc
eventq_index=0
opClass=SimdFloatAdd
opLat=5
pipelined=true

[system.cpu.fuPool.FUList1.opList14]
type=OpDesc
eventq_index=0
opClass=SimdFloatAlu
opLat=5
pipelined=true

[system.cpu.fuPool.FUList1.opList15]
type=OpDesc
eventq_index=0
opClass=SimdFloatCmp
opLat=3
pipelined=true

[system.cpu.fuPool.FUList1.opList16]
type=OpDesc
eventq_index=0
opClass=SimdFloatCvt
opLat=3
pipelined=true

[system.cpu.fuPool.FUList1.opList17]
type=OpDesc
eventq_index=0
opClass=SimdFloatDiv
opLat=3
pipelined=false

[system.cpu.fuPool.FUList1.opList18]
type=OpDesc
eventq_index=0
opClass=SimdFloatMisc
opLat=3
pipelined=true

[system.cpu.fuPool.FUList1.opList19]
type=OpDesc
eventq_index=0
opClass=SimdFloatMult
opLat=3
pipelined=true

[system.cpu.fuPool.FUList1.opList20]
type=OpDesc
eventq_index=0
opClass=SimdFloatMultAcc
opLat=5
pipelined=true

[system.cpu.fuPool.FUList1.opList21]
type=OpDesc
eventq_index=0
opClass=SimdFloatSqrt
opLat=9
pipelined=false

[system.cpu.fuPool.FUList1.opList22]
type=OpDesc
eventq_index=0
opClass=FloatAdd
opLat=3
pipelined=true

[system.cpu.fuPool.FUList1.opList23]
type=OpDesc
eventq_index=0
opClass=FloatCmp
opLat=3
pipelined=true

[system.cpu.fuPool.FUList1.opList24]
type=OpDesc
eventq_index=0
opClass=FloatMultAcc
opLat=5
pipelined=true

[system.cpu.fuPool.FUList2]
type=FUDesc
children=opList0 opList1
count=1
eventq_index=0
opList=system.cpu.fuPool.FUList2.opList0 system.cpu.fuPool.FUList2.opList1

[system.cpu.fuPool.FUList2.opList0]
type=OpDesc
eventq_index=0
opClass=MemRead
opLat=2
pipelined=true

[system.cpu.fuPool.FUList2.opList1]
type=OpDesc
eventq_index=0
opClass=FloatMemRead
opLat=3
pipelined=true

[system.cpu.fuPool.FUList3]
type=FUDesc
children=opList0 opList1
count=1
eventq_index=0
opList=system.cpu.fuPool.FUList3.opList0 system.cpu.fuPool.FUList3.opList1

[system.cpu.fuPool.FUList3.opList0]
type=OpDesc
eventq_index=0
opClass=MemRead
opLat=2
pipelined=true

[system.cpu.fuPool.FUList3.opList1]
type=OpDesc
eventq_index=0
opClass=FloatMemRead
opLat=3
pipelined=true

[system.cpu.fuPool.FUList4]
type=FUDesc
children=opList0 opList1
count=1
eventq_index=0
opList=system.cpu.fuPool.FUList4.opList0 system.cpu.fuPool.FUList4.opList1

[system.cpu.fuPool.FUList4.opList0]
type=OpDesc
eventq_index=0
opClass=MemWrite
opLat=2
pipelined=true

[system.cpu.fuPool.FUList4.opList1]
type=OpDesc
eventq_index=0
opClass=FloatMemWrite
opLat=3
pipelined=true

[system.cpu.fuPool.FUList5]
type=FUDesc
children=opList0 opList1 opList2 opList3 opList4 opList5 opList6 opList7 opList8 opList9
count=1
eventq_index=0
opList=system.cpu.fuPool.FUList5.opList0 system.cpu.fuPool.FUList5.opList1 system.cpu.fuPool.FUList5.opList2 system.cpu.fuPool.FUList5.opList3 system.cpu.fuPool.FUList5.opList4 system.cpu.fuPool.FUList5.opList5 system.cpu.fuPool.FUList5.opList6 system.cpu.fuPool.FUList5.opList7 system.cpu.fuPool.FUList5.opList8 system.cpu.fuPool.FUList5.opList9

[system.cpu.fuPool.FUList5.opList0]
type=OpDesc
eventq_index=0
opClass=SimdAdd
opLat=1
pipelined=true

[system.cpu.fuPool.FUList5.opList1]
type=OpDesc
eventq_index=0
opClass=SimdAddAcc
opLat=1
pipelined=true

[system.cpu.fuPool.FUList5.opList2]
type=OpDesc
eventq_index=0
opClass=SimdAlu
opLat=1
pipelined=true

[system.cpu.fuPool.FUList5.opList3]
type=OpDesc
eventq_index=0
opClass=SimdCmp
opLat=1
pipelined=true

[system.cpu.fuPool.FUList5.opList4]
type=OpDesc
eventq_index=0
opClass=SimdCvt
opLat=6
pipelined=true

[system.cpu.fuPool.FUList5.opList5]
type=OpDesc
eventq_index=0
opClass=SimdMisc
opLat=3
pipelined=true

[system.cpu.fuPool.FUList5.opList6]
type=OpDesc
eventq_index=0
opClass=SimdMult
opLat=5
pipelined=true

[system.cpu.fuPool.FUList5.opList7]
type=OpDesc
eventq_index=0
opClass=SimdMultAcc
opLat=5
pipelined=true

[system.cpu.fuPool.FUList5.opList8]
type=OpDesc
eventq_index=0
opClass=SimdShift
opLat=3
pipelined=true

[system.cpu.fuPool.FUList5.opList9]
type=OpDesc
eventq_index=0
opClass=SimdShiftAcc
opLat=3
pipelined=true

[system.cpu.fuPool.FUList6]
type=FUDesc
children=opList
count=1
eventq_index=0
opList=system.cpu.fuPool.FUList6.opList

[system.cpu.fuPool.FUList6.opList]
type=OpDesc
eventq_index=0
opClass=IntAlu
opLat=1
pipelined=true

[system.cpu.fuPool.FUList7]
type=FUDesc
count=1
eventq_index=0
opList=

[system.cpu.icache]
type=Cache
children=power_state replacement_policy tags
addr_ranges=0:18446744073709551615
assoc=2
clk_domain=system.cpu_clk_domain
clusivity=mostly_incl
compressor=Null
data_latency=1
demand_mshr_reserve=1
eventq_index=0
is_read_only=true
max_miss_count=0
mshrs=16
power_model=
power_state=system.cpu.icache.power_state
prefetch_on_access=false
prefetcher=Null
replacement_policy=system.cpu.icache.replacement_policy
response_latency=1
sequential_access=false
size=32768
system=system
tag_latency=1
tags=system.cpu.icache.tags
tgts_per_mshr=8
warmup_percentage=0
write_allocator=Null
write_buffers=8
writeback_clean=true
cpu_side=system.cpu.icache_port
mem_side=system.membus.cpu_side_ports[1]

[system.cpu.icache.power_state]
type=PowerState
clk_gate_bins=20
clk_gate_max=1000000000000
clk_gate_min=1000
default_state=UNDEFINED
eventq_index=0
leaders=
possible_states=

[system.cpu.icache.replacement_policy]
type=LRURP
eventq_index=0

[system.cpu.icache.tags]
type=BaseSetAssoc
children=indexing_policy power_state
assoc=2
block_size=64
clk_domain=system.cpu_clk_domain
entry_size=64
eventq_index=0
indexing_policy=system.cpu.icache.tags.indexing_policy
power_model=
power_state=system.cpu.icache.tags.power_state
replacement_policy=system.cpu.icache.replacement_policy
sequential_access=false
size=32768
system=system
tag_latency=1
warmup_percentage=0

[system.cpu.icache.tags.indexing_policy]
type=SetAssociative
assoc=2
entry_size=64
eventq_index=0
size=32768

[system.cpu.icache.tags.power_state]
type=PowerState
clk_gate_bins=20
clk_gate_max=1000000000000
clk_gate_min=1000
default_state=UNDEFINED
eventq_index=0
leaders=
possible_states=

[system.cpu.interrupts]
type=X86LocalApic
children=clk_domain
clk_domain=system.cpu.interrupts.clk_domain
eventq_index=0
int_latency=1000
pio_latency=100000
system=system
int_requestor=system.membus.cpu_side_ports[5]
int_responder=system.membus.mem_side_ports[1]
pio=system.membus.mem_side_ports[0]

[system.cpu.interrupts.clk_domain]
type=DerivedClockDomain
clk_divider=16
clk_domain=system.cpu_clk_domain
eventq_index=0

[system.cpu.isa]
type=X86ISA
eventq_index=0

[system.cpu.itb]
type=X86TLB
children=walker
eventq_index=0
size=64
system=system
walker=system.cpu.itb.walker

[system.cpu.itb.walker]
type=X86PagetableWalker
children=power_state
clk_domain=system.cpu_clk_domain
eventq_index=0
num_squash_per_cycle=4
power_model=
power_state=system.cpu.itb.walker.power_state
system=system
port=system.cpu.itb_walker_cache.cpu_side

[system.cpu.itb.walker.power_state]
type=PowerState
clk_gate_bins=20
clk_gate_max=1000000000000
clk_gate_min=1000
default_state=UNDEFINED
eventq_index=0
leaders=
possible_states=

[system.cpu.itb_walker_cache]
type=Cache
children=power_state replacement_policy tags
addr_ranges=0:18446744073709551615
assoc=4
clk_domain=system.cpu_clk_domain
clusivity=mostly_incl
compressor=Null
data_latency=2
demand_mshr_reserve=1
eventq_index=0
is_read_only=true
max_miss_count=0
mshrs=16
power_model=
power_state=system.cpu.itb_walker_cache.power_state
prefetch_on_access=false
prefetcher=Null
replacement_policy=system.cpu.itb_walker_cache.replacement_policy
response_latency=1
sequential_access=false
size=1024
system=system
tag_latency=2
tags=system.cpu.itb_walker_cache.tags
tgts_per_mshr=8
warmup_percentage=0
write_allocator=Null
write_buffers=64
writeback_clean=true
cpu_side=system.cpu.itb.walker.port
mem_side=system.membus.cpu_side_ports[3]

[system.cpu.itb_walker_cache.power_state]
type=PowerState
clk_gate_bins=20
clk_gate_max=1000000000000
clk_gate_min=1000
default_state=UNDEFINED
eventq_index=0
leaders=
possible_states=

[system.cpu.itb_walker_cache.replacement_policy]
type=LRURP
eventq_index=0

[system.cpu.itb_walker_cache.tags]
type=BaseSetAssoc
children=indexing_policy power_state
assoc=4
block_size=64
clk_domain=system.cpu_clk_domain
entry_size=64
eventq_index=0
indexing_policy=system.cpu.itb_walker_cache.tags.indexing_policy
power_model=
power_state=system.cpu.itb_walker_cache.tags.power_state
replacement_policy=system.cpu.itb_walker_cache.replacement_policy
sequential_access=false
size=1024
system=system
tag_latency=2
warmup_percentage=0

[system.cpu.itb_walker_cache.tags.indexing_policy]
type=SetAssociative
assoc=4
entry_size=64
eventq_index=0
size=1024

[system.cpu.itb_walker_cache.tags.power_state]
type=PowerState
clk_gate_bins=20
clk_gate_max=1000000000000
clk_gate_min=1000
default_state=UNDEFINED
eventq_index=0
leaders=
possible_states=

[system.cpu.power_state]
type=PowerState
clk_gate_bins=20
clk_gate_max=1000000000000
clk_gate_min=1000
default_state=UNDEFINED
eventq_index=0
leaders=
possible_states=ON CLK_GATED OFF

[system.cpu.tracer]
type=ExeTracer
eventq_index=0

[system.cpu.workload]
type=Process
cmd=./benchmark_guardpage_asmmove
cwd=/hfi-root/hfi-sightglass/benchmarks/pulldown-cmark
drivers=
egid=100
env=
errout=cerr
euid=100
eventq_index=0
executable=./benchmark_guardpage_asmmove
gid=100
input=cin
kvmInSE=false
maxStackSize=67108864
output=cout
pgid=100
pid=100
ppid=0
release=5.1.0
simpoint=0
system=system
uid=100
useArchPT=false

[system.cpu_clk_domain]
type=SrcClockDomain
clock=500
domain_id=-1
eventq_index=0
init_perf_level=0
voltage_domain=system.cpu_voltage_domain

[system.cpu_voltage_domain]
type=VoltageDomain
eventq_index=0
voltage=1.0

[system.dvfs_handler]
type=DVFSHandler
domains=
enable=false
eventq_index=0
sys_clk_domain=system.clk_domain
transition_latency=100000000

[system.mem_ctrls]
type=MemCtrl
children=dram power_state
clk_domain=system.clk_domain
command_window=10000
dram=system.mem_ctrls.dram
eventq_index=0
mem_sched_policy=frfcfs
min_writes_per_switch=16
nvm=Null
power_model=
power_state=system.mem_ctrls.power_state
qos_policy=Null
qos_priorities=1
qos_priority_escalation=false
qos_q_policy=fifo
qos_requestors=               
qos_syncro_scheduler=false
qos_turnaround_policy=Null
static_backend_latency=10000
static_frontend_latency=10000
system=system
write_high_thresh_perc=85
write_low_thresh_perc=50
port=system.membus.mem_side_ports[2]

[system.mem_ctrls.dram]
type=DRAMInterface
children=power_state
IDD0=0.055
IDD02=0.0
IDD2N=0.032
IDD2N2=0.0
IDD2P0=0.0
IDD2P02=0.0
IDD2P1=0.032
IDD2P12=0.0
IDD3N=0.038
IDD3N2=0.0
IDD3P0=0.0
IDD3P02=0.0
IDD3P1=0.038
IDD3P12=0.0
IDD4R=0.157
IDD4R2=0.0
IDD4W=0.125
IDD4W2=0.0
IDD5=0.23500000000000001
IDD52=0.0
IDD6=0.02
IDD62=0.0
VDD=1.5
VDD2=0.0
activation_limit=4
addr_mapping=RoRaBaCoCh
bank_groups_per_rank=0
banks_per_rank=8
beats_per_clock=2
burst_length=8
clk_domain=system.clk_domain
conf_table_reported=true
data_clock_sync=false
device_bus_width=8
device_rowbuffer_size=1024
device_size=536870912
devices_per_rank=8
dll=true
enable_dram_powerdown=false
eventq_index=0
image_file=
in_addr_map=true
kvm_map=true
max_accesses_per_row=16
null=false
page_policy=open_adaptive
power_model=
power_state=system.mem_ctrls.dram.power_state
range=0:536870912
ranks_per_channel=2
read_buffer_size=32
tAAD=1250
tBURST=5000
tBURST_MAX=5000
tBURST_MIN=5000
tCCD_L=0
tCCD_L_WR=0
tCK=1250
tCL=13750
tCS=2500
tPPD=0
tRAS=35000
tRCD=13750
tREFI=7800000
tRFC=260000
tRP=13750
tRRD=6000
tRRD_L=0
tRTP=7500
tRTW=2500
tWR=15000
tWTR=7500
tWTR_L=7500
tXAW=30000
tXP=6000
tXPDLL=0
tXS=270000
tXSDLL=0
two_cycle_activate=false
write_buffer_size=64

[system.mem_ctrls.dram.power_state]
type=PowerState
clk_gate_bins=20
clk_gate_max=1000000000000
clk_gate_min=1000
default_state=UNDEFINED
eventq_index=0
leaders=
possible_states=

[system.mem_ctrls.power_state]
type=PowerState
clk_gate_bins=20
clk_gate_max=1000000000000
clk_gate_min=1000
default_state=UNDEFINED
eventq_index=0
leaders=
possible_states=

[system.membus]
type=CoherentXBar
children=power_state snoop_filter
clk_domain=system.clk_domain
eventq_index=0
forward_latency=4
frontend_latency=3
header_latency=1
max_outstanding_snoops=512
max_routing_table_size=512
point_of_coherency=true
point_of_unification=true
power_model=
power_state=system.membus.power_state
response_latency=2
snoop_filter=system.membus.snoop_filter
snoop_response_latency=4
system=system
use_default_range=false
width=16
cpu_side_ports=system.system_port system.cpu.icache.mem_side system.cpu.dcache.mem_side system.cpu.itb_walker_cache.mem_side system.cpu.dtb_walker_cache.mem_side system.cpu.interrupts.int_requestor
mem_side_ports=system.cpu.interrupts.pio system.cpu.interrupts.int_responder system.mem_ctrls.port

[system.membus.power_state]
type=PowerState
clk_gate_bins=20
clk_gate_max=1000000000000
clk_gate_min=1000
default_state=UNDEFINED
eventq_index=0
leaders=
possible_states=

[system.membus.snoop_filter]
type=SnoopFilter
eventq_index=0
lookup_latency=1
max_capacity=8388608
system=system

[system.redirect_paths0]
type=RedirectPath
app_path=/proc
eventq_index=0
host_paths=/hfi-root/benchmarks/sightglass_guardpage_asmmove_Oct17-19:06/pulldown-cmark_gem5/fs/proc

[system.redirect_paths1]
type=RedirectPath
app_path=/sys
eventq_index=0
host_paths=/hfi-root/benchmarks/sightglass_guardpage_asmmove_Oct17-19:06/pulldown-cmark_gem5/fs/sys

[system.redirect_paths2]
type=RedirectPath
app_path=/tmp
eventq_index=0
host_paths=/hfi-root/benchmarks/sightglass_guardpage_asmmove_Oct17-19:06/pulldown-cmark_gem5/fs/tmp

[system.voltage_domain]
type=VoltageDomain
eventq_index=0
voltage=1.0

